/batch
/config,noeldb,1     ! force off writing results to database
*get,_wallstrt,active,,time,wall
! ANSYS input file written by Workbench version 2022 R1
! File used for geometry attach: D:\University\6sem\KSKR\CourseAnsys\My Detail_files\dp0\SYS\DM\SYS.agdb
/title,My Detail--Static Structural (A5)
! ****** Begin Custom Load Command Snippet ******
/COM, ACT Extensions:
/COM,     LSDYNA, 2021.1
/COM,     5f463412-bd3e-484b-87e7-cbc0a665e474, wbex
/COM,
! ****** End   Custom Load Command Snippet ******
*DIM,_wb_ProjectScratch_dir,string,248
_wb_ProjectScratch_dir(1) = 'D:\University\6sem\KSKR\CourseAnsys\_ProjectScratch\Scr1A00\'
*DIM,_wb_SolverFiles_dir,string,248
_wb_SolverFiles_dir(1) = 'D:\University\6sem\KSKR\CourseAnsys\My Detail_files\dp0\SYS\MECH\'
*DIM,_wb_userfiles_dir,string,248
_wb_userfiles_dir(1) = 'D:\University\6sem\KSKR\CourseAnsys\My Detail_files\user_files\'
/com,--- Data in consistent MKS units. See Solving Units in the help system for more information.
/units,MKS
/nopr
/wb,file,start              !  signify a WB generated input file
/prep7
! Turn off shape checking because checks already performed inside WB mesher.
! See help system for more information.
SHPP,OFF,,NOWARN
/nolist
etcon,set             ! allow ANSYS to choose best KEYOP's for 180x elements, resets any applicable keyopt to MAPDL defaults
/com,*********** Nodes for the whole assembly ***********
nblock,3,,448
(1i9,3e20.9e3)
        1    -1.500064285E-01     9.999024497E-02     0.000000000E+00
        2    -1.500064285E-01    -1.000097550E-01     0.000000000E+00
        3    -1.500064285E-01     5.999024497E-02     0.000000000E+00
        4    -1.500064285E-01     1.999024497E-02     0.000000000E+00
        5    -1.500064285E-01    -2.000975503E-02     0.000000000E+00
        6    -1.500064285E-01    -6.000975503E-02     0.000000000E+00
        7    -1.500064285E-01    -1.000097550E-01     1.500000000E-02
        8    -1.500064285E-01     9.999024497E-02     1.500000000E-02
        9    -1.500064285E-01     5.999024497E-02     1.500000000E-02
       10    -1.500064285E-01     1.999024497E-02     1.500000000E-02
       11    -1.500064285E-01    -2.000975503E-02     1.500000000E-02
       12    -1.500064285E-01    -6.000975503E-02     1.500000000E-02
       13     1.499935715E-01    -1.000097550E-01     0.000000000E+00
       14    -1.071492857E-01    -1.000097550E-01     0.000000000E+00
       15    -6.429214283E-02    -1.000097550E-01     0.000000000E+00
       16    -2.143499997E-02    -1.000097550E-01     0.000000000E+00
       17     2.142214289E-02    -1.000097550E-01     0.000000000E+00
       18     6.427928575E-02    -1.000097550E-01     0.000000000E+00
       19     1.071364286E-01    -1.000097550E-01     0.000000000E+00
       20     1.499935715E-01    -1.000097550E-01     1.500000000E-02
! ... 389 like lines cut
/wb,elem,start            !  set before creation of elements
/com,*********** Elements for Body 1 "Solid" ***********
et,1,185
eblock,19,solid,,984
(19i9)
        1        1        1        1        0        0        0        0        8        0        1       81      408       82       82      360      360      360      360
        1        1        1        1        0        0        0        0        8        0        2       81      408      311      311      146      146      146      146
        1        1        1        1        0        0        0        0        8        0        3       81      408      360      360      311      311      311      311
        1        1        1        1        0        0        0        0        8        0        4       82       83      408      408      147      147      147      147
        1        1        1        1        0        0        0        0        8        0        5       82      408       83       83      361      361      361      361
        1        1        1        1        0        0        0        0        8        0        6       83      148      408      408      147      147      147      147
        1        1        1        1        0        0        0        0        8        0        7      148      408      312      312      208      208      208      208
        1        1        1        1        0        0        0        0        8        0        8      208      312      361      361      408      408      408      408
        1        1        1        1        0        0        0        0        8        0        9      146      408      311      311      147      147      147      147
        1        1        1        1        0        0        0        0        8        0       10       82      360      408      408      361      361      361      361
        1        1        1        1        0        0        0        0        8        0       11      147      312      148      148      408      408      408      408
        1        1        1        1        0        0        0        0        8        0       12      147      311      312      312      408      408      408      408
        1        1        1        1        0        0        0        0        8        0       13      311      408      360      360      312      312      312      312
        1        1        1        1        0        0        0        0        8        0       14      312      408      360      360      361      361      361      361
        1        1        1        1        0        0        0        0        8        0       15      135      302      407      407      398      398      398      398
        1        1        1        1        0        0        0        0        8        0       16       70      407      353      353      398      398      398      398
        1        1        1        1        0        0        0        0        8        0       17      302      353      407      407      398      398      398      398
        1        1        1        1        0        0        0        0        8        0       18      135      302      136      136      407      407      407      407
        1        1        1        1        0        0        0        0        8        0       19       70      353      407      407       71       71       71       71
        1        1        1        1        0        0        0        0        8        0       20       72      136      137      137      407      407      407      407
! ... 965 like lines cut
!Material Id = {4CBD4BC4-6A2B-4101-A3C4-1319408AC006}
/wb,elem,end               !  done creating elements
/com,*********** Send User Defined Coordinate System(s) ***********
csys,0
toffst,273.15,  ! Temperature offset from absolute zero
/com,*********** Set Reference Temperature ***********
tref,22.
/wb,mat,start              !  starting to send materials
/com,*********** Send Materials ***********
Temperature = 'TEMP' ! Temperature
MP,DENS,1,7850,	! kg m^-3
MP,ALPX,1,1.2e-05,	! C^-1
MP,C,1,434,	! J kg^-1 C^-1
MP,KXX,1,60.5,	! W m^-1 C^-1
MP,RSVX,1,1.7e-07,	! kg m^3 A^-2 s^-3
MP,EX,1,200000000000,	! Pa
MP,NUXY,1,0.3,
MP,MURX,1,10000,
MP,UVID,1,3741974d-1e51-4be7-94a7-7f67ad536759
MP,UMID,1,59002a79-71c2-428e-906b-55d7dbee100e

/wb,mat,end                !  done sending materials
!************************* Model Summary ********************
!Solid,	Structural Steel 2,	matid,	1
!************************* End Model Summary ********************
! get the diagonal of the bounding box. Needed later for other things
*get,_xmin,node,,mnloc,x
*get,_ymin,node,,mnloc,y
*get,_zmin,node,,mnloc,z
*get,_xmax,node,,mxloc,x
*get,_ymax,node,,mxloc,y
*get,_zmax,node,,mxloc,z
_ASMDIAG=(_xmax-_xmin)*(_xmax-_xmin)+(_ymax-_ymin)*(_ymax-_ymin)+(_zmax-_zmin)*(_zmax-_zmin)
_ASMDIAG=SQRT(_ASMDIAG)
/wb,contact,start          !  starting to send contact
/wb,contact,end            !  done creating contacts
CMBLOCK,FORCE   ,NODE,       14
(8i10)
       168       169       170       171       172       173       174       263
       264       265       266       267       268       269
CMBLOCK,FIXED_SUPPORT,NODE,       24
(8i10)
       120       121       122       123       124       125       132       133
       134       135       136       137       144       145       146       147
       148       149       156       157       158       159       160       161

CMBLOCK,SELECTION,NODE,      408
(8i10)
         1         2         3         4         5         6         7         8
         9        10        11        12        13        14        15        16
        17        18        19        20        21        22        23        24
        25        26        27        28        29        30        31        32
        33        34        35        36        37        38        39        40
        41        42        43        44        45        46        47        48
        49        50        51        52        53        54        55        56
        57        58        59        60        61        62        63        64
        65        66        67        68        69        70        71        72
        73        74        75        76        77        78        79        80
        81        82        83        84        85        86        87        88
        89        90        91        92        93        94        95        96
        97        98        99       100       101       102       103       104
       105       106       107       108       109       110       111       112
       113       114       115       116       117       118       119       120
       121       122       123       124       125       126       127       128
       129       130       131       132       133       134       135       136
       137       138       139       140       141       142       143       144
       145       146       147       148       149       150       151       152
       153       154       155       156       157       158       159       160
! ... 31 like lines cut

CMBLOCK,SELECTION_2,ELEM,      984
(8i10)
         1         2         3         4         5         6         7         8
         9        10        11        12        13        14        15        16
        17        18        19        20        21        22        23        24
        25        26        27        28        29        30        31        32
        33        34        35        36        37        38        39        40
        41        42        43        44        45        46        47        48
        49        50        51        52        53        54        55        56
        57        58        59        60        61        62        63        64
        65        66        67        68        69        70        71        72
        73        74        75        76        77        78        79        80
        81        82        83        84        85        86        87        88
        89        90        91        92        93        94        95        96
        97        98        99       100       101       102       103       104
       105       106       107       108       109       110       111       112
       113       114       115       116       117       118       119       120
       121       122       123       124       125       126       127       128
       129       130       131       132       133       134       135       136
       137       138       139       140       141       142       143       144
       145       146       147       148       149       150       151       152
       153       154       155       156       157       158       159       160
! ... 103 like lines cut

/golist
/wb,load,start             !  starting to send loads
/com,*********** Fixed Supports ***********
CMBLOCK,_FIXEDSU,NODE,       24
(8i10)
       120       121       122       123       124       125       132       133
       134       135       136       137       144       145       146       147
       148       149       156       157       158       159       160       161

cmsel,s,_FIXEDSU
d,all,all
nsel,all
/com,*********** Create Direct FE , Forces ****
CMBLOCK,_CM94F  ,NODE,       14
(8i10)
       168       169       170       171       172       173       174       263
       264       265       266       267       268       269
/gst,on,on
fini
*get,_numnode,node,0,count
*get,_numelem,elem,0,count
*get, _MAXELEMNUM, elem, 0, NUM, MAX
*get, _MAXNODENUM, node, 0, NUM, MAX
*get, _MAXELEMTYPE, etyp, 0, NUM, MAX
*get, _MAXREALCONST, real, 0, NUM, MAX
/go
/wb,load,end               !  done creating loads
/com,--- Number of total nodes = %_numnode%
/com,--- Number of contact elements = 0
/com,--- Number of spring elements = 0
/com,--- Number of bearing elements = 0
/com,--- Number of solid elements = 984
/com,--- Number of condensed parts = 0
/com,--- Number of total elements = %_numelem%
*get,_wallbsol,active,,time,wall
/com,****************************************************************************
/com,*************************    SOLUTION       ********************************
/com,****************************************************************************
/solu
antype,0                   ! static analysis
_thickRatio=  0     ! Ratio of thick parts in the model
eqsl,sparse,,,,,1
cntr,print,1               ! print out contact info and also make no initial contact an error
dmpoption,emat,no             ! Don't combine emat file for DANSYS
dmpoption,esav,no             ! Don't combine esav file for DANSYS
nldiag,cont,iter           ! print out contact info each equilibrium iteration
rescontrol,,none                 ! Do not keep any restart files
/com,****************************************************
/com,******************* SOLVE FOR LS 1 OF 1 ****************
/com,**** Set Direct FE , Forces ****
f,_CM94F,fx,0.
f,_CM94F,fy,0.
f,_CM94F,fz,-7.14285714285714
/nopr
/gopr
nsub,1,1,1
time,1.
outres,erase
outres,all,none
outres,nsol,all,
outres,rsol,all
outres,eangl,all
outres,etmp,all
outres,veng,all
outres,strs,all,
outres,epel,all,
outres,eppl,all,
outres,cont,all,
! *********** WB SOLVE COMMAND ***********
! check interactive state
*get,ANSINTER_,active,,int
*if,ANSINTER_,ne,0,then
/eof
*endif
solve
/com *************** Write FE CONNECTORS ********* 
CEWRITE,file,ce,,INTE
/com,****************************************************
/com,*************** FINISHED SOLVE FOR LS 1 *************
*get,_wallasol,active,,time,wall
/nopr
*get,_numnode,node,0,count
*get,_numelem,elem,0,count
*get, _MAXELEMNUM, elem, 0, NUM, MAX
*get, _MAXNODENUM, node, 0, NUM, MAX,,,INTERNAL
*get, _MAXELEMTYPE, etyp, 0, NUM, MAX
*get, _MAXREALCONST, real, 0, NUM, MAX
/gopr
/post1
xmlo,ENCODING,ISO-8859-1
xmlo,parm
/xml,parm,xml
fini
/gopr
*get,_walldone,active,,time,wall
_preptime=(_wallbsol-_wallstrt)*3600
_solvtime=(_wallasol-_wallbsol)*3600
_posttime=(_walldone-_wallasol)*3600
_totaltim=(_walldone-_wallstrt)*3600
*get,_dlbratio,active,0,solu,dlbr
*get,_combtime,active,0,solu,comb
*get,_ssmode,active,0,solu,ssmm
*get,_ndofs,active,0,solu,ndof
*get,_sol_end_time,active,0,set,time
*if,_sol_end_time,eq,1.000000,then
/fclean				!clean distributed files
*endif
/com,--- Total number of nodes = %_numnode%
/com,--- Total number of elements = %_numelem%
/com,--- Element load balance ratio = %_dlbratio%
/com,--- Time to combine distributed files = %_combtime%
/com,--- Sparse memory mode = %_ssmode%
/com,--- Number of DOF = %_ndofs%
/wb,file,end               ! done with WB generated input
