/batch
/config,noeldb,1     ! force off writing results to database
*get,_wallstrt,active,,time,wall
! ANSYS input file written by Workbench version 2020 R2
! File used for geometry attach: S:\Data\university\5sem\kskr\course\ansys\detail_files\dp0\SYS\DM\SYS.agdb
/title,detail--Static Structural (A5)
*DIM,_wb_ProjectScratch_dir,string,248
_wb_ProjectScratch_dir(1) = 'S:\Data\university\5sem\kskr\course\ansys\_ProjectScratch\Scr8E67\'
*DIM,_wb_SolverFiles_dir,string,248
_wb_SolverFiles_dir(1) = 'S:\Data\university\5sem\kskr\course\ansys\detail_files\dp0\SYS\MECH\'
*DIM,_wb_userfiles_dir,string,248
_wb_userfiles_dir(1) = 'S:\Data\university\5sem\kskr\course\ansys\detail_files\user_files\'
/com,--- Data in consistent MKS units. See Solving Units in the help system for more information.
/units,MKS
/nopr
/wb,file,start              !  signify a WB generated input file
/prep7
! Turn off shape checking because checks already performed inside WB mesher.
! See help system for more information.
SHPP,OFF,,NOWARN
/nolist
etcon,set             ! allow ANSYS to choose best KEYOP's for 180x elements
/com,*********** Nodes for the whole assembly ***********
nblock,3,,3534
(1i9,3e20.9e3)
        1     3.585703298E-02     5.000000000E-01     9.467712045E-02
        2     5.211957172E-02     0.000000000E+00     1.117553785E-01
        3    -3.556444868E-02     0.000000000E+00     9.363466501E-02
        4    -1.359695755E-02     5.000000000E-01    -1.535233855E-01
        5    -3.680507094E-02     5.000000000E-01    -8.568945527E-02
        6    -5.027892441E-02     5.000000000E-01    -1.935769320E-01
        7    -9.024574608E-02     0.000000000E+00    -3.234995529E-02
        8    -8.887007833E-02     0.000000000E+00     7.594425231E-02
        9    -1.246234030E-01     0.000000000E+00     1.116960123E-01
       10    -7.270416617E-02     0.000000000E+00    -8.497444540E-02
       11    -3.960452229E-02     0.000000000E+00    -1.259833872E-01
       12    -5.148441344E-02     0.000000000E+00    -1.932598054E-01
       13    -1.353722764E-04     0.000000000E+00    -5.005212128E-02
       14     7.192118466E-02     0.000000000E+00    -4.985298216E-02
       15     1.292164922E-01     0.000000000E+00    -3.516164795E-02
       16     3.939350322E-02     0.000000000E+00    -1.261045933E-01
       17     9.153006226E-02     0.000000000E+00    -1.778264493E-01
       18     3.580084816E-02     0.000000000E+00    -1.417653076E-02
       19     5.364437774E-02     0.000000000E+00     3.946194425E-02
       20    -3.587706760E-02     0.000000000E+00    -1.417326648E-02
! ... 3194 like lines cut
/wb,elem,start            !  set before creation of elements
/com,*********** Elements for Body 1 "Solid" ***********
et,1,185
eblock,19,solid,,16605
(19i9)
        1        1        1        1        0        0        0        0        8        0        1      124     1660     2973     2973     1666     1666     1666     1666
        1        1        1        1        0        0        0        0        8        0        2      125     1634     2976     2976     1630     1630     1630     1630
        1        1        1        1        0        0        0        0        8        0        3      131     1562     2986     2986     1567     1567     1567     1567
        1        1        1        1        0        0        0        0        8        0        4      126     1614     2979     2979     1611     1611     1611     1611
        1        1        1        1        0        0        0        0        8        0        5      114     1733     2961     2961     1763     1763     1763     1763
        1        1        1        1        0        0        0        0        8        0        6       19     1983     1687     1687     2867     2867     2867     2867
        1        1        1        1        0        0        0        0        8        0        7     1687     2531     1984     1984     1681     1681     1681     1681
        1        1        1        1        0        0        0        0        8        0        8      101     1819     2949     2949     1794     1794     1794     1794
        1        1        1        1        0        0        0        0        8        0        9     2251     2223     2904     2904     2247     2247     2247     2247
        1        1        1        1        0        0        0        0        8        0       10      589      583     3122     3122      534      534      534      534
        1        1        1        1        0        0        0        0        8        0       11     2412     2386     2885     2885     2350     2350     2350     2350
        1        1        1        1        0        0        0        0        8        0       12       76     2230     2235     2235     2236     2236     2236     2236
        1        1        1        1        0        0        0        0        8        0       13      172     1315     3029     3029     1337     1337     1337     1337
        1        1        1        1        0        0        0        0        8        0       14     1002     2719     3071     3071      986      986      986      986
        1        1        1        1        0        0        0        0        8        0       15     1475     2658     1248     1248     1251     1251     1251     1251
        1        1        1        1        0        0        0        0        8        0       16     1010      992     3070     3070     2282     2282     2282     2282
        1        1        1        1        0        0        0        0        8        0       17      210     2731     3089     3089      825      825      825      825
        1        1        1        1        0        0        0        0        8        0       18     1071     2698     3062     3062      712      712      712      712
        1        1        1        1        0        0        0        0        8        0       19     1040     2715     3066     3066      725      725      725      725
        1        1        1        1        0        0        0        0        8        0       20      588      584     3122     3122      590      590      590      590
! ... 16586 like lines cut
!Material Id = {F0530ED2-A3E7-43E8-B9E5-C1847D78EDA4}
/wb,elem,end               !  done creating elements
/com,*********** Send User Defined Coordinate System(s) ***********
csys,0
toffst,273.15,  ! Temperature offset from absolute zero
/com,*********** Set Reference Temperature ***********
tref,22.
/wb,mat,start              !  starting to send materials
/com,*********** Send Materials ***********
Temperature = 'TEMP' ! Temperature
MP,DENS,1,7850,	! kg m^-3
MP,ALPX,1,1.2e-05,	! C^-1
MP,C,1,434,	! J kg^-1 C^-1
MP,KXX,1,60.5,	! W m^-1 C^-1
MP,RSVX,1,1.7e-07,	! kg m^3 A^-2 s^-3
MP,EX,1,200000000000,	! Pa
MP,NUXY,1,0.3,
MP,MURX,1,10000,

/wb,mat,end                !  done sending materials
!************************* Model Summary ********************
!Solid,	Structural Steel,	matid,	1
!************************* End Model Summary ********************
! get the diagonal of the bounding box. Needed later for other things
*get,_xmin,node,,mnloc,x
*get,_ymin,node,,mnloc,y
*get,_zmin,node,,mnloc,z
*get,_xmax,node,,mxloc,x
*get,_ymax,node,,mxloc,y
*get,_zmax,node,,mxloc,z
_ASMDIAG=(_xmax-_xmin)*(_xmax-_xmin)+(_ymax-_ymin)*(_ymax-_ymin)+(_zmax-_zmin)*(_zmax-_zmin)
_ASMDIAG=SQRT(_ASMDIAG)
/wb,contact,start          !  starting to send contact
/wb,contact,end            !  done creating contacts
/golist
/wb,load,start             !  starting to send loads
/com,*********** Fixed Supports ***********
CMBLOCK,_FIXEDSU,NODE,      138
(8i10)
         2         3         7         8         9        10        11        12
        13        14        15        16        17        18        19        20
        21        38        39        40        41        56        70        85
       103       116       245       354       355       359       360       361
       363       379       389       390       393       403       407       408
       409       411       418       419       423       424       425       426
       427      1670      1681      1682      1683      1685      1687      1688
      1690      1693      1694      1695      1725      1739      1740      1744
      1745      1746      1747      1750      1751      1781      1791      1792
      1793      1815      1829      1833      1834      1835      1838      1870
      1871      1927      1951      1952      1953      1955      1963      1967
      2012      2022      2023      2025      2026      2029      2041      2042
      2046      2048      2060      2061      2513      2516      2519      2521
      2523      2524      2525      2529      2531      2576      2578      2855
      2857      2867      2868      2869      2920      2921      2922      2924
      2930      2936      2942      2944      2948      2951      2952      2957
      2959      2963      2964      2969      2970      3142      3143      3145
      3146      3149
cmsel,s,_FIXEDSU
d,all,all
nsel,all
/com,*********** Define Force Using Surface Effect Elements ***********
local,12,0,0.,0.,0.,0.,0.,0.
csys,0
et,2,154
eblock,10,,,232
(15i9)
    18260        2        2        2       12     2837        1      780      780
    18261        2        2        2       12        1     2755       55       55
    18262        2        2        2       12        4     2906     2230     2230
    18263        2        2        2       12      308     2197        4        4
    18264        2        2        2       12        5      467     2423     2423
    18265        2        2        2       12     3133        5      457      457
    18266        2        2        2       12     2909        6     2197     2197
    18267        2        2        2       12       22     2399     2887     2887
    18268        2        2        2       12       23      618     3085     3085
    18269        2        2        2       12      626       23      841      841
    18270        2        2        2       12       25      850     3085     3085
    18271        2        2        2       12      646       25      774      774
    18272        2        2        2       12       26     2734     3093     3093
    18273        2        2        2       12       26      780     2746     2746
    18274        2        2        2       12       27      768     2747     2747
    18275        2        2        2       12       27     2739     2838     2838
    18276        2        2        2       12     3119       28      620      620
    18277        2        2        2       12       28      617      634      634
    18278        2        2        2       12      533      582       29       29
    18279        2        2        2       12       29     2755     2837     2837
! ... 213 like lines cut
esel,s,type,,2
keyop,2,2,1                ! Apply load in local coordinate system
keyop,2,7,1                ! Use original area so load is constant in large deformation
keyop,2,11,2               ! Use real and not project area
esel,all
/gst,on,on
fini
*get,_numnode,node,0,count
*get,_numelem,elem,0,count
*get, _MAXELEMNUM, elem, 0, NUM, MAX
*get, _MAXNODENUM, node, 0, NUM, MAX
*get, _MAXELEMTYPE, etyp, 0, NUM, MAX
*get, _MAXREALCONST, real, 0, NUM, MAX
/go
/wb,load,end               !  done creating loads
/com,--- Number of total nodes = %_numnode%
/com,--- Number of contact elements = 232
/com,--- Number of spring elements = 0
/com,--- Number of bearing elements = 0
/com,--- Number of solid elements = 16605
/com,--- Number of condensed parts = 0
/com,--- Number of total elements = %_numelem%
*get,_wallbsol,active,,time,wall
/com,****************************************************************************
/com,*************************    SOLUTION       ********************************
/com,****************************************************************************
/solu
antype,0                   ! static analysis
_thickRatio=  1     ! Ratio of thick parts in the model
eqsl,pcg,1e-8,,,,,,1
cntr,print,1               ! print out contact info and also make no initial contact an error
dmpoption,emat,no             ! Don't combine emat file for DANSYS
dmpoption,esav,no             ! Don't combine esav file for DANSYS
nldiag,cont,iter           ! print out contact info each equilibrium iteration
rescontrol,,none                 ! Do not keep any restart files
/com,****************************************************
/com,******************* SOLVE FOR LS 1 OF 1 ****************
esel,s,type,,2
nsle
sfe,all,1,pres,1,0.
sfe,all,2,pres,1,-799895145.104067
sfe,all,3,pres,1,0.
nsel,all
esel,all
/nopr
/gopr
nsub,1,1,1
time,1.
outres,erase
outres,all,none
outres,nsol,all,
outres,rsol,all
outres,eangl,all
outres,etmp,all
outres,veng,all
outres,strs,all,
outres,epel,all,
outres,eppl,all,
outres,cont,all,
! *********** WB SOLVE COMMAND ***********
! check interactive state
*get,ANSINTER_,active,,int
*if,ANSINTER_,ne,0,then
/eof
*endif
solve
/com *************** Write FE CONNECTORS ********* 
CEWRITE,file,ce,,INTE
/com,****************************************************
/com,*************** FINISHED SOLVE FOR LS 1 *************
*get,_wallasol,active,,time,wall
/nopr
*get,_numnode,node,0,count
*get,_numelem,elem,0,count
*get, _MAXELEMNUM, elem, 0, NUM, MAX
*get, _MAXNODENUM, node, 0, NUM, MAX,,,INTERNAL
*get, _MAXELEMTYPE, etyp, 0, NUM, MAX
*get, _MAXREALCONST, real, 0, NUM, MAX
/gopr
*get,_PCGITER,active,,solu,cgiter
/post1
xmlo,ENCODING,ISO-8859-1
xmlo,parm
/xml,parm,xml
fini
/gopr
*get,_walldone,active,,time,wall
_preptime=(_wallbsol-_wallstrt)*3600
_solvtime=(_wallasol-_wallbsol)*3600
_posttime=(_walldone-_wallasol)*3600
_totaltim=(_walldone-_wallstrt)*3600
*get,_dlbratio,active,0,solu,dlbr
*get,_combtime,active,0,solu,comb
/com,--- Total number of nodes = %_numnode%
/com,--- Total number of elements = %_numelem%
/com,--- Element load balance ratio = %_dlbratio%
/com,--- Time to combine distributed files = %_combtime%
/wb,file,end               ! done with WB generated input
